<!-- number of vehicles:10 -->
<!-- generated on 2020-04-20 12:41:31.769297 by "cars.rou.xml -m 2 -r 1.5 -t 10" -->
<routes>
  <route id="0" edges="n1_to_w"/>
  <route id="1" edges="w_to_n1"/>
  <route id="2" edges="s1_to_c1"/>
  <route id="3" edges="n2_to_c2"/>
  <route id="4" edges="e_to_c2"/>
  <route id="5" edges="s2_to_c2"/>
  <route id="6" edges="w_to_c1"/>
  <route id="7" edges="n2_to_n1"/>
  <route id="8" edges="n1_to_n2"/>
  <route id="9" edges="s1_to_s2"/>
  <route id="10" edges="s1_to_c1"/>
  <route id="11" edges="s1_to_w"/>
  <route id="12" edges="w_to_s1"/>
  <route id="13" edges="s1_to_c1"/>
  <route id="14" edges="s2_to_c2"/>
  <route id="15" edges="c2_to_s2"/>
  <route id="16" edges="e_to_s2"/>
  <route id="17" edges="s2_to_e"/>
  <route id="18" edges="e_to_n2"/>
  <route id="19" edges="n2_to_e"/>
  <route id="20" edges="e_to_c2"/>
  <route id="21" edges="c2_to_e"/>
  <route id="22" edges="n2_to_c2"/>
  <route id="23" edges="c1_to_w"/>
  <route id="24" edges="c1_to_s1"/>
  <route id="25" edges="n2_to_c2"/>
  <route id="26" edges="c1_to_w"/>
  <route id="27" edges="n1_to_c1"/>
  <route id="28" edges="c1_to_c2"/>
  <route id="29" edges="c1_to_c2"/>
  <route id="30" edges="pp1_to_p1 p1_to_p2 p2_to_pp2"/>
  <route id="31" edges="pp2_to_p2 p2_to_p1 p1_to_pp1"/>

  <vType id="Car0" />

      <vehicle id="veh1" type="Car0" depart="0.29580927972" route="29">
    </vehicle>
      <vehicle id="veh2" type="Car0" depart="0.895707393611" route="21">
    </vehicle>
      <vehicle id="veh3" type="Car0" depart="1.2522059053" route="13">
    </vehicle>
      <vehicle id="veh4" type="Car0" depart="1.56876198874" route="24">
    </vehicle>
      <vehicle id="veh5" type="Car0" depart="1.9138262471" route="1">
    </vehicle>
      <vehicle id="veh6" type="Car0" depart="1.94355131554" route="23">
    </vehicle>
      <vehicle id="veh7" type="Car0" depart="2.17712270532" route="12">
    </vehicle>
      <vehicle id="veh8" type="Car0" depart="2.48516608229" route="11">
    </vehicle>
      <vehicle id="veh9" type="Car0" depart="3.09964318063" route="6">
    </vehicle>
      <vehicle id="veh10" type="Car0" depart="3.48516608229" route="11">
    </vehicle>
</routes>
